
  MOE2004           3D

  8  8  0  0  0  0  0  0  0  0999 V2000
   -4.6730    0.9550    2.7580 C   0  0  0  0  0  0  0  0  0  0  0  0
   -3.3080    0.0240    2.1250 C   0  0  0  0  0  0  0  0  0  0  0  0
   -1.3930    0.7480    2.4440 C   0  0  0  0  0  0  0  0  0  0  0  0
   -0.7220    1.8810    1.2500 C   0  0  0  0  0  0  0  0  0  0  0  0
   -0.8780    3.1880    1.5020 C   0  0  0  0  0  0  0  0  0  0  0  0
   -1.7510    3.6740    2.9660 C   0  0  0  0  0  0  0  0  0  0  0  0
   -2.6920    2.1750    4.0660 C   0  0  0  0  0  0  0  0  0  0  0  0
   -4.4240    1.9210    3.6680 C   0  0  0  0  0  0  0  0  0  0  0  0
  1  2  1  0  0  0  0
  1  8  2  0  0  0  0
  2  3  1  0  0  0  0
  3  4  1  0  0  0  0
  4  5  2  0  0  0  0
  5  6  1  0  0  0  0
  6  7  1  0  0  0  0
  7  8  1  0  0  0  0
M  END
$$$$

  CDK

  4  3  0  0  0  0  0  0  0  0999 V2000
  404.1292  880.0000    0.0000 C   0  0  0  0  0  0  0  0  0  0  0  0
  435.3062  898.0000    0.0000 C   0  0  0  0  0  0  0  0  0  0  0  0
  404.1292  844.0000    0.0000 C   0  0  0  0  0  0  0  0  0  0  0  0
  466.4831  880.0000    0.0000 C   0  0  0  0  0  0  0  0  0  0  0  0
  1  2  2  0  0  0  0 
  1  3  1  0  0  0  0 
  2  4  1  0  0  0  0 
M  END