
  MOE2004           3D

  8  7  0  0  0  0  0  0  0  0999 V2000
    0.0070   -0.0040    0.0030 C   0  0  0  0  0  0  0  0  0  0  0  0
   -0.2850   -0.7200    0.7260 H   0  0  0  0  0  0  0  0  0  0  0  0
    0.5440   -0.1890    0.8660 H   0  0  0  0  0  0  0  0  0  0  0  0
   -0.8240    0.6030   -0.2490 H   0  0  0  0  0  0  0  0  0  0  0  0
    0.5120   -0.7200   -1.2490 C   0  0  0  0  0  0  0  0  0  0  0  0
    0.1880   -2.5140   -1.0130 H   0  0  0  0  0  0  0  0  0  0  0  0
   -0.4010   -1.3690   -1.8600 H   0  0  0  0  0  0  0  0  0  0  0  0
    1.5180   -0.4450   -1.4320 H   0  0  0  0  0  0  0  0  0  0  0  0
  1  2  1  0  0  0  0
  1  3  1  0  0  0  0
  1  4  1  0  0  0  0
  1  5  1  0  0  0  0
  5  6  1  0  0  0  0
  5  7  1  0  0  0  0
  5  8  1  0  0  0  0
M  END
