2-methylbenzo-1,4-quinone
DAtclserve10200012203D 0   0.00000     0.00000NCI NS
 
 15 15  0  0  0  0  0  0  0  0  1 V2000
    1.8890    1.7851   -0.0009 C   0  0  0  0  0  0  0  0  0  0  0  0
    0.7730    0.7724   -0.0022 C   0  0  0  0  0  0  0  0  0  0  0  0
    1.0858   -0.6712    0.0000 C   0  0  0  0  0  0  0  0  0  0  0  0
   -0.5031    1.1816    0.0003 C   0  0  0  0  0  0  0  0  0  0  0  0
    2.2422   -1.0420    0.0024 O   0  0  0  0  0  0  0  0  0  0  0  0
   -0.0081   -1.6639   -0.0002 C   0  0  0  0  0  0  0  0  0  0  0  0
   -1.5969    0.1889   -0.0004 C   0  0  0  0  0  0  0  0  0  0  0  0
   -1.2842   -1.2547   -0.0029 C   0  0  0  0  0  0  0  0  0  0  0  0
   -2.7534    0.5597    0.0023 O   0  0  0  0  0  0  0  0  0  0  0  0
    1.4675    2.7903   -0.0028 H   0  0  0  0  0  0  0  0  0  0  0  0
    2.5015    1.6497    0.8905 H   0  0  0  0  0  0  0  0  0  0  0  0
    2.5052    1.6479   -0.8894 H   0  0  0  0  0  0  0  0  0  0  0  0
   -0.7317    2.2371    0.0033 H   0  0  0  0  0  0  0  0  0  0  0  0
    0.2206   -2.7194    0.0013 H   0  0  0  0  0  0  0  0  0  0  0  0
   -2.0840   -1.9805   -0.0034 H   0  0  0  0  0  0  0  0  0  0  0  0
  1  2  1  0  0  0  0 
  2  3  1  0  0  0  0 
  2  4  2  0  0  0  0 
  3  5  2  0  0  0  0 
  3  6  1  0  0  0  0 
  4  7  1  0  0  0  0 
  6  8  2  0  0  0  0 
  7  9  2  0  0  0  0 
  7  8  1  0  0  0  0 
  1 10  1  0  0  0  0 
  1 11  1  0  0  0  0 
  1 12  1  0  0  0  0 
  4 13  1  0  0  0  0 
  6 14  1  0  0  0  0 
  8 15  1  0  0  0  0 
M  END

