
  Mrv0541 12131312013D          

  4  3  0  0  0  0            999 V2000
   -0.2987   -0.3210   -0.6678 C   0  0  0  0  0  0  0  0  0  0  0  0
    0.3350   -0.7375    0.4401 C   0  0  0  0  0  0  0  0  0  0  0  0
   -1.6271   -0.7748   -1.0227 C   0  0  0  0  0  0  0  0  0  0  0  0
    1.6638   -0.2947    0.8057 C   0  0  0  0  0  0  0  0  0  0  0  0
  1  2  2  0  0  0  0
  1  3  1  0  0  0  0
  2  4  1  0  0  0  0
M  END
