
  MOE2004           3D

  9 10  0  0  0  0  0  0  0  0999 V2000
    3.9360    3.1760   -0.5130 C   0  0  0  0  0  0  0  0  0  0  0  0
    3.5290    4.3210    0.4850 C   0  0  0  0  0  0  0  0  0  0  0  0
    1.8030    4.7450    0.0020 C   0  0  0  0  0  0  0  0  0  0  0  0
    0.6790    3.3770    0.0110 C   0  0  0  0  0  0  0  0  0  0  0  0
    1.1480    2.0800    0.0020 C   0  0  0  0  0  0  0  0  0  0  0  0
    2.8870    1.7480   -0.0100 C   0  0  0  0  0  0  0  0  0  0  0  0
   -1.1210    1.9920    0.0180 C   0  0  0  0  0  0  0  0  0  0  0  0
   -0.7710    3.3010    0.0220 C   0  0  0  0  0  0  0  0  0  0  0  0
   -0.0140    1.2110    0.0090 C   0  0  0  0  0  0  0  0  0  0  0  0
  1  2  1  0  0  0  0
  1  6  1  0  0  0  0
  2  3  1  0  0  0  0
  3  4  1  0  0  0  0
  4  5  2  0  0  0  0
  4  8  1  0  0  0  0
  5  6  1  0  0  0  0
  5  9  1  0  0  0  0
  7  8  1  0  0  0  0
  7  9  1  0  0  0  0
M  END
