ZINC01309609
  -OEChem-08130801193D

 33 34  0     0  0  0  0  0  0999 V2000
   -1.6475    2.0477    1.1826 C   0  0  0  0  0  0  0  0  0  0  0  0
   -2.8680    2.6868    1.2790 C   0  0  0  0  0  0  0  0  0  0  0  0
   -3.5553    3.0442    0.1335 C   0  0  0  0  0  0  0  0  0  0  0  0
   -3.0207    2.7688   -1.1118 C   0  0  0  0  0  0  0  0  0  0  0  0
   -1.7980    2.1351   -1.2152 C   0  0  0  0  0  0  0  0  0  0  0  0
   -1.1051    1.7743   -0.0666 C   0  0  0  0  0  0  0  0  0  0  0  0
    0.1315    1.1328   -0.1677 N   0  0  0  0  0  0  0  0  0  0  0  0
   -3.7595    3.1540   -2.3350 N   0  3  0  0  0  0  0  0  0  0  0  0
   -3.2403    3.0178   -3.4283 O   0  0  0  0  0  0  0  0  0  0  0  0
   -4.8867    3.6073   -2.2483 O   0  5  0  0  0  0  0  0  0  0  0  0
   -4.8898    3.7358    0.2425 C   0  0  0  0  0  0  0  0  0  0  0  0
   -5.2268    3.9512    1.6955 C   0  0  0  0  0  0  0  0  0  0  0  0
   -5.0609    5.2008    2.2642 C   0  0  0  0  0  0  0  0  0  0  0  0
   -5.3692    5.4017    3.5953 C   0  0  0  0  0  0  0  0  0  0  0  0
   -5.8463    4.3469    4.3630 C   0  0  0  0  0  0  0  0  0  0  0  0
   -6.0117    3.0931    3.7885 C   0  0  0  0  0  0  0  0  0  0  0  0
   -5.7065    2.9003    2.4555 C   0  0  0  0  0  0  0  0  0  0  0  0
   -5.8882    1.5662    1.8410 N   0  3  0  0  0  0  0  0  0  0  0  0
   -6.2147    0.6172    2.5311 O   0  0  0  0  0  0  0  0  0  0  0  0
   -5.7112    1.4173    0.6452 O   0  5  0  0  0  0  0  0  0  0  0  0
   -6.1595    4.5468    5.7095 N   0  0  0  0  0  0  0  0  0  0  0  0
   -1.1132    1.7649    2.0776 H   0  0  0  0  0  0  0  0  0  0  0  0
   -3.2881    2.9037    2.2499 H   0  0  0  0  0  0  0  0  0  0  0  0
   -1.3812    1.9200   -2.1881 H   0  0  0  0  0  0  0  0  0  0  0  0
    0.5074    0.9388   -1.0406 H   0  0  0  0  0  0  0  0  0  0  0  0
    0.6163    0.8849    0.6351 H   0  0  0  0  0  0  0  0  0  0  0  0
   -4.8426    4.6987   -0.2661 H   0  0  0  0  0  0  0  0  0  0  0  0
   -5.6585    3.1174   -0.2209 H   0  0  0  0  0  0  0  0  0  0  0  0
   -4.6902    6.0205    1.6667 H   0  0  0  0  0  0  0  0  0  0  0  0
   -5.2398    6.3779    4.0388 H   0  0  0  0  0  0  0  0  0  0  0  0
   -6.3828    2.2709    4.3825 H   0  0  0  0  0  0  0  0  0  0  0  0
   -6.0439    5.4229    6.1094 H   0  0  0  0  0  0  0  0  0  0  0  0
   -6.4926    3.8095    6.2445 H   0  0  0  0  0  0  0  0  0  0  0  0
  1  6  2  0  0  0  0
  1  2  1  0  0  0  0
  1 22  1  0  0  0  0
  2  3  2  0  0  0  0
  2 23  1  0  0  0  0
  3  4  1  0  0  0  0
  3 11  1  0  0  0  0
  4  5  2  0  0  0  0
  4  8  1  0  0  0  0
  5  6  1  0  0  0  0
  5 24  1  0  0  0  0
  6  7  1  0  0  0  0
  7 25  1  0  0  0  0
  7 26  1  0  0  0  0
  8  9  2  0  0  0  0
  8 10  1  0  0  0  0
 11 12  1  0  0  0  0
 11 27  1  0  0  0  0
 11 28  1  0  0  0  0
 12 17  2  0  0  0  0
 12 13  1  0  0  0  0
 13 14  2  0  0  0  0
 13 29  1  0  0  0  0
 14 15  1  0  0  0  0
 14 30  1  0  0  0  0
 15 16  2  0  0  0  0
 15 21  1  0  0  0  0
 16 17  1  0  0  0  0
 16 31  1  0  0  0  0
 17 18  1  0  0  0  0
 18 19  2  0  0  0  0
 18 20  1  0  0  0  0
 21 32  1  0  0  0  0
 21 33  1  0  0  0  0
M  CHG  4   8   1  10  -1  18   1  20  -1
M  END
$$$$
